data/dss/P/network/Loads.dss
New Load.1 bus1=3096165.2 kV=0.23094010767585033 Vminpu=0.7 Vmaxpu=1.3 model=1 kW=0.0 kvar=0.0 Phases=1
New Load.2 bus1=3093228.1.2.3 kV=0.4 Vminpu=0.7 Vmaxpu=1.3 model=1 kW=0.0 kvar=0.0 Phases=3
New Load.3 bus1=3094658.1.2.3 kV=0.4 Vminpu=0.7 Vmaxpu=1.3 model=1 kW=0.0 kvar=0.0 Phases=3
New Load.4 bus1=3094954.1.2.3 kV=0.4 Vminpu=0.7 Vmaxpu=1.3 model=1 kW=0.0 kvar=0.0 Phases=3
New Load.5 bus1=3093747.1.2.3 kV=0.4 Vminpu=0.7 Vmaxpu=1.3 model=1 kW=0.0 kvar=0.0 Phases=3
New Load.6 bus1=3094691.1.2.3 kV=0.4 Vminpu=0.7 Vmaxpu=1.3 model=1 kW=0.0 kvar=0.0 Phases=3
New Load.7 bus1=3093689.1.2.3 kV=0.4 Vminpu=0.7 Vmaxpu=1.3 model=1 kW=1.408676100907069 kvar=0.28604388231732075 Phases=3
New Load.8 bus1=3094758.1.2.3 kV=0.4 Vminpu=0.7 Vmaxpu=1.3 model=1 kW=0.7655017683782526 kvar=0.15544176379984967 Phases=3
New Load.9 bus1=3093497.1.2.3 kV=0.4 Vminpu=0.7 Vmaxpu=1.3 model=1 kW=1.3456010652158557 kvar=0.27323595005042095 Phases=3
New Load.10 bus1=3094022.1.2.3 kV=0.4 Vminpu=0.7 Vmaxpu=1.3 model=1 kW=2.2028482737696957 kvar=0.4473074200516027 Phases=3
New Load.11 bus1=3096162.3 kV=0.23094010767585033 Vminpu=0.7 Vmaxpu=1.3 model=1 kW=1.5262251056287788 kvar=0.3099132257749714 Phases=1
New Load.12 bus1=3096163.3 kV=0.23094010767585033 Vminpu=0.7 Vmaxpu=1.3 model=1 kW=3.9116088287188853 kvar=0.7942860496838027 Phases=1
New Load.13 bus1=3093736.1.2.3 kV=0.4 Vminpu=0.7 Vmaxpu=1.3 model=1 kW=1.5386489901044715 kvar=0.31243600311647707 Phases=3
New Load.14 bus1=3092835.1.2.3 kV=0.4 Vminpu=0.7 Vmaxpu=1.3 model=1 kW=3.039070531187127 kvar=0.6171095916351297 Phases=3
New Load.15 bus1=3094621.1.2.3 kV=0.4 Vminpu=0.7 Vmaxpu=1.3 model=1 kW=1.7240514616451204 kvar=0.35008358066575535 Phases=3
New Load.16 bus1=3096164.3 kV=0.23094010767585033 Vminpu=0.7 Vmaxpu=1.3 model=1 kW=1.383828331955684 kvar=0.2809983276343093 Phases=1
New Load.17 bus1=3096165.2 kV=0.23094010767585033 Vminpu=0.7 Vmaxpu=1.3 model=1 kW=2.009800531163067 kvar=0.40810740399948253 Phases=1
New Load.18 bus1=3096166.2 kV=0.23094010767585033 Vminpu=0.7 Vmaxpu=1.3 model=1 kW=1.602679730249428 kvar=0.32543799944971596 Phases=1
New Load.19 bus1=3093693.1.2.3 kV=0.4 Vminpu=0.7 Vmaxpu=1.3 model=1 kW=2.8804272375053506 kvar=0.5848956969015411 Phases=3
New Load.20 bus1=3096167.2 kV=0.23094010767585033 Vminpu=0.7 Vmaxpu=1.3 model=1 kW=2.2257848160955795 kvar=0.45196488361587167 Phases=1
New Load.21 bus1=3093861.1.2.3 kV=0.4 Vminpu=0.7 Vmaxpu=1.3 model=1 kW=1.1171928958076514 kvar=0.2268556930925263 Phases=3
New Load.22 bus1=3093193.2 kV=0.23094010767585033 Vminpu=0.7 Vmaxpu=1.3 model=1 kW=2.459477227698328 kvar=0.4994181517162561 Phases=1
New Load.23 bus1=3094032.1.2.3 kV=0.4 Vminpu=0.7 Vmaxpu=1.3 model=1 kW=1.4402136187526753 kvar=0.29244784845077054 Phases=3
New Load.24 bus1=3095098.1.2.3 kV=0.4 Vminpu=0.7 Vmaxpu=1.3 model=1 kW=3.3620913452731447 kvar=0.6827017655003421 Phases=3
New Load.25 bus1=3095101.3 kV=0.23094010767585033 Vminpu=0.7 Vmaxpu=1.3 model=1 kW=1.8473344196663146 kvar=0.3751172530005372 Phases=1
New Load.26 bus1=3095099.1.2.3 kV=0.4 Vminpu=0.7 Vmaxpu=1.3 model=1 kW=0.9012087020161323 kvar=0.1829982319831052 Phases=3
New Load.27 bus1=3095100.1.2.3 kV=0.4 Vminpu=0.7 Vmaxpu=1.3 model=1 kW=2.5430714034591326 kvar=0.5163926730830486 Phases=3
New Load.28 bus1=3093709.1.2.3 kV=0.4 Vminpu=0.7 Vmaxpu=1.3 model=1 kW=2.6529748636918837 kvar=0.5387095225169536 Phases=3
New Load.29 bus1=3094007.1.2.3 kV=0.4 Vminpu=0.7 Vmaxpu=1.3 model=1 kW=2.4350791698518837 kvar=0.4944639147678863 Phases=3
New Load.30 bus1=3096168.2 kV=0.23094010767585033 Vminpu=0.7 Vmaxpu=1.3 model=1 kW=2.592766759079916 kvar=0.5264837454351355 Phases=1
New Load.31 bus1=3094818.1.2.3 kV=0.4 Vminpu=0.7 Vmaxpu=1.3 model=1 kW=1.3905181719908992 kvar=0.28235675759171586 Phases=3
New Load.32 bus1=3096169.1 kV=0.23094010767585033 Vminpu=0.7 Vmaxpu=1.3 model=1 kW=5.145395024794502 kvar=1.0448170221676403 Phases=1
New Load.33 bus1=3093414.1.2.3 kV=0.4 Vminpu=0.7 Vmaxpu=1.3 model=1 kW=2.0556732512508606 kvar=0.4174222571001486 Phases=3
New Load.34 bus1=3093412.1.2.3 kV=0.4 Vminpu=0.7 Vmaxpu=1.3 model=1 kW=8.393760274301906 kvar=1.7044257189826568 Phases=3
New Load.35 bus1=3092840.1.2.3 kV=0.4 Vminpu=0.7 Vmaxpu=1.3 model=1 kW=2.459477227698328 kvar=0.49941815171625614 Phases=3
New Load.36 bus1=3094543.1.2.3 kV=0.4 Vminpu=0.7 Vmaxpu=1.3 model=1 kW=0.9661950554738403 kvar=0.1961942738757154 Phases=3
New Load.37 bus1=3096176.3 kV=0.23094010767585033 Vminpu=0.7 Vmaxpu=1.3 model=1 kW=1.215628267159447 kvar=0.2468438477582327 Phases=1
New Load.38 bus1=3096177.2 kV=0.23094010767585033 Vminpu=0.7 Vmaxpu=1.3 model=1 kW=1.5204909700473077 kvar=0.30874885988390405 Phases=1
New Load.39 bus1=3095070.2.3 kV=0.4 Vminpu=0.7 Vmaxpu=1.3 model=1 kW=2.245854062778244 kvar=0.45604011796718696 Phases=2
New Load.40 bus1=3096178.2 kV=0.23094010767585033 Vminpu=0.7 Vmaxpu=1.3 model=1 kW=1.196514633789533 kvar=0.24296265896628852 Phases=1
New Load.41 bus1=3093413.1.2.3 kV=0.4 Vminpu=0.7 Vmaxpu=1.3 model=1 kW=1.0780099246140793 kvar=0.21889925144229871 Phases=3
New Load.42 bus1=3096179.1 kV=0.23094010767585033 Vminpu=0.7 Vmaxpu=1.3 model=1 kW=4.12185906921092 kvar=0.8369791819160926 Phases=1
New Load.43 bus1=3096180.2 kV=0.23094010767585033 Vminpu=0.7 Vmaxpu=1.3 model=1 kW=1.0264030689448145 kvar=0.20842003245056548 Phases=1
New Load.44 bus1=3093228.1.2.3 kV=0.4 Vminpu=0.7 Vmaxpu=1.3 model=1 kW=1.7078048504954455 kvar=0.34678456556586085 Phases=3
New Load.45 bus1=3093227.1.2.3 kV=0.4 Vminpu=0.7 Vmaxpu=1.3 model=1 kW=3.938367824295772 kvar=0.7997196954855568 Phases=3
New Load.46 bus1=3094658.1.2.3 kV=0.4 Vminpu=0.7 Vmaxpu=1.3 model=1 kW=4.581542156824589 kvar=0.9303218140030276 Phases=3
New Load.47 bus1=3096181.3 kV=0.23094010767585033 Vminpu=0.7 Vmaxpu=1.3 model=1 kW=2.2238734071880915 kvar=0.4515767554831932 Phases=1
New Load.48 bus1=3096182.2 kV=0.23094010767585033 Vminpu=0.7 Vmaxpu=1.3 model=1 kW=0.8916518397606787 kvar=0.18105762833364913 Phases=1
New Load.49 bus1=3096183.1 kV=0.23094010767585033 Vminpu=0.7 Vmaxpu=1.3 model=1 kW=4.119947660303432 kvar=0.836591053783414 Phases=1
New Load.50 bus1=3096184.1 kV=0.23094010767585033 Vminpu=0.7 Vmaxpu=1.3 model=1 kW=0.823798372941739 kvar=0.1672793942420214 Phases=1
New Load.51 bus1=3096185.2 kV=0.23094010767585033 Vminpu=0.7 Vmaxpu=1.3 model=1 kW=0.4663731099308695 kvar=0.09470109905827755 Phases=1
New Load.52 bus1=3096186.2 kV=0.23094010767585033 Vminpu=0.7 Vmaxpu=1.3 model=1 kW=0.868715479716782 kvar=0.17640020178331617 Phases=1
New Load.53 bus1=3096187.1 kV=0.23094010767585033 Vminpu=0.7 Vmaxpu=1.3 model=1 kW=1.0780099246140793 kvar=0.21889925144229871 Phases=1
New Load.54 bus1=3096188.2 kV=0.23094010767585033 Vminpu=0.7 Vmaxpu=1.3 model=1 kW=0.8992972931086444 kvar=0.1826101038504268 Phases=1
New Load.55 bus1=3096189.1 kV=0.23094010767585033 Vminpu=0.7 Vmaxpu=1.3 model=1 kW=0.7291858194049192 kvar=0.14806749584167175 Phases=1
New Load.56 bus1=3096190.2 kV=0.23094010767585033 Vminpu=0.7 Vmaxpu=1.3 model=1 kW=1.0149348889228662 kvar=0.20609131917539902 Phases=1
New Load.57 bus1=3096191.2 kV=0.23094010767585033 Vminpu=0.7 Vmaxpu=1.3 model=1 kW=0.5428276889810223 kvar=0.1102258634795382 Phases=1
New Load.58 bus1=3096192.3 kV=0.23094010767585033 Vminpu=0.7 Vmaxpu=1.3 model=1 kW=1.5969455035269642 kvar=0.32427361505168073 Phases=1
New Load.59 bus1=3096193.2 kV=0.23094010767585033 Vminpu=0.7 Vmaxpu=1.3 model=1 kW=0.552384551236476 kvar=0.11216646712899428 Phases=1
New Load.60 bus1=3096194.1 kV=0.23094010767585033 Vminpu=0.7 Vmaxpu=1.3 model=1 kW=0.5485617789919965 kvar=0.11139022011712144 Phases=1
New Load.61 bus1=3096195.2 kV=0.23094010767585033 Vminpu=0.7 Vmaxpu=1.3 model=1 kW=0.9117211775843369 kvar=0.18513288119193252 Phases=1
New Load.62 bus1=3092841.1.2.3 kV=0.4 Vminpu=0.7 Vmaxpu=1.3 model=1 kW=1.4392580054399247 kvar=0.29225380289139935 Phases=3
New Load.63 bus1=3094549.1.2.3 kV=0.4 Vminpu=0.7 Vmaxpu=1.3 model=1 kW=0.9289234931877561 kvar=0.18862596035816626 Phases=3
New Load.64 bus1=3094550.1.2.3 kV=0.4 Vminpu=0.7 Vmaxpu=1.3 model=1 kW=5.945301242097607 kvar=1.2072449072860214 Phases=3
New Load.65 bus1=3092842.1.2.3 kV=0.4 Vminpu=0.7 Vmaxpu=1.3 model=1 kW=1.5061557678051207 kvar=0.305837972916688 Phases=3
New Load.66 bus1=3092843.1.2.3 kV=0.4 Vminpu=0.7 Vmaxpu=1.3 model=1 kW=2.4188325587022077 kvar=0.4911648996679917 Phases=3
New Load.67 bus1=3093481.1.2.3 kV=0.4 Vminpu=0.7 Vmaxpu=1.3 model=1 kW=1.8540241685605365 kvar=0.3764756644509757 Phases=3
New Load.68 bus1=3096196.2 kV=0.23094010767585033 Vminpu=0.7 Vmaxpu=1.3 model=1 kW=1.9362129287626568 kvar=0.39316480401678766 Phases=1
New Load.69 bus1=3096197.2 kV=0.23094010767585033 Vminpu=0.7 Vmaxpu=1.3 model=1 kW=2.2248291116418355 kvar=0.45177081954953247 Phases=1
New Load.70 bus1=3096198.3 kV=0.23094010767585033 Vminpu=0.7 Vmaxpu=1.3 model=1 kW=1.3752272652949677 kvar=0.27925180655816045 Phases=1
New Load.71 bus1=3096199.1 kV=0.23094010767585033 Vminpu=0.7 Vmaxpu=1.3 model=1 kW=1.6571536081389313 kvar=0.33649939213349883 Phases=1
New Load.72 bus1=3094435.1.2.3 kV=0.4 Vminpu=0.7 Vmaxpu=1.3 model=1 kW=4.410475252090097 kvar=0.8955851974488374 Phases=3
New Load.73 bus1=3094008.1.2.3 kV=0.4 Vminpu=0.7 Vmaxpu=1.3 model=1 kW=2.016490280057289 kvar=0.4094658154499211 Phases=3
New Load.74 bus1=3094749.1.2.3 kV=0.4 Vminpu=0.7 Vmaxpu=1.3 model=1 kW=1.149686118107002 kvar=0.23345372329231534 Phases=3
New Load.75 bus1=3094564.1.2.3 kV=0.4 Vminpu=0.7 Vmaxpu=1.3 model=1 kW=1.4602829565763333 kvar=0.2965231013090539 Phases=3
New Load.76 bus1=3094141.1.2.3 kV=0.4 Vminpu=0.7 Vmaxpu=1.3 model=1 kW=1.3580249496915484 kvar=0.2757587273919267 Phases=3
New Load.77 bus1=3093656.1.2.3 kV=0.4 Vminpu=0.7 Vmaxpu=1.3 model=1 kW=2.550716856807099 kvar=0.5179451485998264 Phases=3
New Load.78 bus1=3092833.1.2.3 kV=0.4 Vminpu=0.7 Vmaxpu=1.3 model=1 kW=3.040026235640872 kvar=0.6173036557014688 Phases=3
New Load.79 bus1=3093850.1.2.3 kV=0.4 Vminpu=0.7 Vmaxpu=1.3 model=1 kW=1.647596745883478 kvar=0.3345587884840428 Phases=3
New Load.80 bus1=3092760.1.2.3 kV=0.4 Vminpu=0.7 Vmaxpu=1.3 model=1 kW=1.5224023789547956 kvar=0.30913698801658246 Phases=3
New Load.81 bus1=3094954.1.2.3 kV=0.4 Vminpu=0.7 Vmaxpu=1.3 model=1 kW=1.4201442809290175 kvar=0.28837259559248724 Phases=3
New Load.82 bus1=3094365.1.2.3 kV=0.4 Vminpu=0.7 Vmaxpu=1.3 model=1 kW=3.0725196402222075 kvar=0.6239017229151939 Phases=3
New Load.83 bus1=3093747.1.2.3 kV=0.4 Vminpu=0.7 Vmaxpu=1.3 model=1 kW=2.459477227698328 kvar=0.49941815171625614 Phases=3
New Load.84 bus1=3093021.1.2.3 kV=0.4 Vminpu=0.7 Vmaxpu=1.3 model=1 kW=2.9587931798924947 kvar=0.6008085802019961 Phases=3
New Load.85 bus1=3094225.1.2.3 kV=0.4 Vminpu=0.7 Vmaxpu=1.3 model=1 kW=2.922477322060155 kvar=0.5934343307507863 Phases=3
New Load.86 bus1=3095132.1.2.3 kV=0.4 Vminpu=0.7 Vmaxpu=1.3 model=1 kW=4.175377060364694 kvar=0.8478464735196003 Phases=3
New Load.87 bus1=3096200.3 kV=0.23094010767585033 Vminpu=0.7 Vmaxpu=1.3 model=1 kW=1.2662794183749675 kvar=0.2571290026836267 Phases=1
New Load.88 bus1=3094033.1.2.3 kV=0.4 Vminpu=0.7 Vmaxpu=1.3 model=1 kW=3.6640870259407667 kvar=0.7440246039339637 Phases=3
New Load.89 bus1=3092834.1.2.3 kV=0.4 Vminpu=0.7 Vmaxpu=1.3 model=1 kW=1.4287454387307268 kvar=0.29011913517560406 Phases=3
New Load.90 bus1=3096201.2 kV=0.23094010767585033 Vminpu=0.7 Vmaxpu=1.3 model=1 kW=2.245854062778244 kvar=0.45604011796718696 Phases=1
New Load.91 bus1=3096202.2 kV=0.23094010767585033 Vminpu=0.7 Vmaxpu=1.3 model=1 kW=0.7186732982662184 kvar=0.1459328373793605 Phases=1
New Load.92 bus1=3093642.2.3 kV=0.4 Vminpu=0.7 Vmaxpu=1.3 model=1 kW=1.40580907868683 kvar=0.28546170862527104 Phases=2
New Load.93 bus1=3094103.1.2.3 kV=0.4 Vminpu=0.7 Vmaxpu=1.3 model=1 kW=4.779368421699936 kvar=0.9704921503868437 Phases=3
New Load.94 bus1=3096203.2 kV=0.23094010767585033 Vminpu=0.7 Vmaxpu=1.3 model=1 kW=2.355757523010995 kvar=0.4783569674010919 Phases=1
New Load.95 bus1=3096204.3 kV=0.23094010767585033 Vminpu=0.7 Vmaxpu=1.3 model=1 kW=1.058896291244165 kvar=0.21501806265035456 Phases=1
New Load.96 bus1=3094932.1.2.3 kV=0.4 Vminpu=0.7 Vmaxpu=1.3 model=1 kW=4.99153007109946 kvar=1.013573410751812 Phases=3
New Load.97 bus1=3094958.1.2.3 kV=0.4 Vminpu=0.7 Vmaxpu=1.3 model=1 kW=1.9973765555463816 kvar=0.4055846081510089 Phases=3
New Load.98 bus1=3094691.1.2.3 kV=0.4 Vminpu=0.7 Vmaxpu=1.3 model=1 kW=1.2223180160536686 kvar=0.24820225920867114 Phases=3
New Load.99 bus1=3093498.1.2.3 kV=0.4 Vminpu=0.7 Vmaxpu=1.3 model=1 kW=0.6986039604425602 kvar=0.1418575845210771 Phases=3
New Load.100 bus1=3093577.1.2.3 kV=0.4 Vminpu=0.7 Vmaxpu=1.3 model=1 kW=1.059851995697909 kvar=0.2152121267166938 Phases=3
New Load.101 bus1=3093710.1.2.3 kV=0.4 Vminpu=0.7 Vmaxpu=1.3 model=1 kW=1.0101564577951392 kvar=0.20512101735067093 Phases=3
New Load.102 bus1=3096424.1 kV=0.23094010767585033 Vminpu=0.7 Vmaxpu=1.3 model=1 kW=3.822730319622543 kvar=0.7762384986675522 Phases=1
New Load.103 bus1=3096436.2 kV=0.23094010767585033 Vminpu=0.7 Vmaxpu=1.3 model=1 kW=1.185046362626591 kvar=0.24063392718415402 Phases=1
New Load.104 bus1=3096467.2 kV=0.23094010767585033 Vminpu=0.7 Vmaxpu=1.3 model=1 kW=1.339867020775378 kvar=0.27207160266632174 Phases=1
New Load.105 bus1=3096479.2 kV=0.23094010767585033 Vminpu=0.7 Vmaxpu=1.3 model=1 kW=2.108123338027138 kvar=0.4280727014710767 Phases=1
New Load.106 bus1=3096480.3 kV=0.23094010767585033 Vminpu=0.7 Vmaxpu=1.3 model=1 kW=2.459477227698328 kvar=0.4994181517162561 Phases=1
New Load.107 bus1=3095071.1.2.3 kV=0.4 Vminpu=0.7 Vmaxpu=1.3 model=1 kW=2.459477227698328 kvar=0.49941815171625614 Phases=3
New Load.108 bus1=3096485.1 kV=0.23094010767585033 Vminpu=0.7 Vmaxpu=1.3 model=1 kW=2.459477227698328 kvar=0.4994181517162561 Phases=1
New Load.109 bus1=3096491.1 kV=0.23094010767585033 Vminpu=0.7 Vmaxpu=1.3 model=1 kW=2.459477227698328 kvar=0.4994181517162561 Phases=1